LAMMPS (12 Dec 2018)
#script for elastic constant
include init.mod

variable up equal 1.0e-6
variable atomjiggle equal 1.0e-5

units           metal
variable cfac equal 1.0e-4
variable cunits string GPa

# Define minimization parameters
variable etol equal 1.0e-15
variable ftol equal 1.0e-10
variable maxiter equal 400000
variable maxeval equal 400000
variable dmax equal 1.0e-2

atom_style atomic
boundary p p p
box tilt large

read_data       data.relax
  orthogonal box = (0.109696 0.110832 0.115378) to (56.5243 57.1093 59.4518)
  reading atoms ...
  6720 atoms
  reading velocities ...
  6720 velocities
include potential.mod
#NOTE: This script can be modified for different pair styles
# See in.elastic for more info.

# Choose potential
pair_style  mlip mlip.ini
pair_coeff      * *

# Setup neighbor style
neighbor 1.0 nsq
neigh_modify once no every 1 delay 0 check yes

# Setup minimization style
min_style            cg
min_modify           dmax 0.01 line quadratic

# Setup output
thermo          20
thermo_style custom step temp pe press pxx pyy pzz pxy pxz pyz lx ly lz vol
thermo_modify norm no

# Compute initial state
fix 3 all box/relax  aniso 0.0
minimize 1e-15 1e-10 400000 400000
  update every 1 steps, delay 0 steps, check yes
Step Temp PotEng Press Pxx Pyy Pzz Pxy Pxz Pyz Lx Ly Lz Volume
0    299.61526   -19366.073    -365.7019    1868.1667    1404.6968   -4369.9692    61.001782    12.912762    -425.6185    56.414606    56.998437    59.336444    190798.97
Averages over the last 1018 of 2035 rows, steps 20340 to 40669:
Temp PotEng Press Pxx Pyy Pzz Pxy Pxz Pyz Lx Ly Lz Volume
299.615 -19635.8 1489.54 1491.93 1487.52 1489.18 21.0591 7.67651 -42.7076 56.3304 56.9127 58.2243 186662
Loop time of 891.618 on 72 procs for 40669 steps with 6720 atoms

Minimization stats:
  Stopping criterion = energy tolerance
  Energy initial, next-to-last, final =
  Force two-norm initial, final = 696.742 0.00104155
  Force max component initial, final = 693.787 0.00053258
  Final line search alpha, max atom move = 0.181397 9.66084e-05
  Iterations, force evaluations = 40669 61543

variable tmp equal pxx
variable pxx0 equal 1491.3929080578
variable tmp equal pyy
variable pyy0 equal 1487.79127991193
variable tmp equal pzz
variable pzz0 equal 1488.31906104155
variable tmp equal pyz
variable pyz0 equal -46.4548772632477
variable tmp equal pxz
variable pxz0 equal 8.85460888894364
variable tmp equal pxy
variable pxy0 equal 20.3272864681416

variable tmp equal lx
variable lx0 equal 56.3271008573358
variable tmp equal ly
variable ly0 equal 56.9104007004759
variable tmp equal lz
variable lz0 equal 58.2237029347861

# These formulas define the derivatives w.r.t. strain components
# # Constants uses $, variables use v_
variable d1 equal -(v_pxx1-1491.3929080578)/(v_delta/v_len0)*0.0001
variable d2 equal -(v_pyy1-1487.79127991193)/(v_delta/v_len0)*0.0001
variable d3 equal -(v_pzz1-1488.31906104155)/(v_delta/v_len0)*0.0001
variable d4 equal -(v_pyz1--46.4548772632477)/(v_delta/v_len0)*0.0001
variable d5 equal -(v_pxz1-8.85460888894364)/(v_delta/v_len0)*0.0001
variable d6 equal -(v_pxy1-20.3272864681416)/(v_delta/v_len0)*0.0001

displace_atoms all random 1e-05 1e-05 1e-05 87287 units box

# Write restart
unfix 3
write_restart restart.equil

# uxx Perturbation

variable dir equal 1
include displace.mod
# NOTE: This script should not need to be
# modified. See in.elastic for more info.
#
# Find which reference length to use

variable len0 equal 56.3271008573358

# Reset box and simulation parameters

clear
box tilt large
read_restart restart.equil
  restoring atom style atomic from restart
  orthogonal box = (0.153449 0.15485 0.671749) to (56.4805 57.0653 58.8955)
  pair style mlip stores no restart info
  6720 atoms
include potential.mod
#NOTE: This script can be modified for different pair styles
# See in.elastic for more info.

# Choose potential
pair_style  mlip mlip.ini
pair_coeff      * *

# Setup neighbor style
neighbor 1.0 nsq
neigh_modify once no every 1 delay 0 check yes

# Setup minimization style
min_style            cg
min_modify           dmax 0.01 line quadratic

# Setup output
thermo          20
thermo_style custom step temp pe press pxx pyy pzz pxy pxz pyz lx ly lz vol
thermo_modify norm no

# Negative deformation

variable delta equal -1e-06*56.3271008573358
variable deltaxy equal -1e-06*xy
variable deltaxz equal -1e-06*xz
variable deltayz equal -1e-06*yz
change_box all triclinic
  triclinic box = (0.153449 0.15485 0.671749) to (56.4805 57.0653 58.8955) with tilt (0 0 0)
change_box all x delta 0 -5.63271008573358e-05 xy delta -0 xz delta -0 remap units box
  triclinic box = (0.153449 0.15485 0.671749) to (56.4805 57.0653 58.8955) with tilt (0 0 0)
  triclinic box = (0.153449 0.15485 0.671749) to (56.4805 57.0653 58.8955) with tilt (0 0 0)
  triclinic box = (0.153449 0.15485 0.671749) to (56.4805 57.0653 58.8955) with tilt (0 0 0)

# Relax atoms positions

minimize 1e-15 1e-10 400000 400000
  update every 1 steps, delay 0 steps, check yes
Step Temp PotEng Press Pxx Pyy Pzz Pxy Pxz Pyz Lx Ly Lz Volume
40669    299.61526   -19636.672    1489.5704    1492.0137    1488.0913    1488.6061    20.321004    8.8545876   -46.488104    56.327045    56.910401    58.223703    186641.59
Loop time of 3.07942 on 72 procs for 105 steps with 6720 atoms

Minimization stats:
  Stopping criterion = energy tolerance
  Energy initial, next-to-last, final =
  Force two-norm initial, final = 0.00346826 7.85549e-06
  Force max component initial, final = 0.000115969 5.64705e-07
  Final line search alpha, max atom move = 1 5.64705e-07
  Iterations, force evaluations = 105 210

# Obtain new stress tensor

variable tmp equal pxx
variable pxx1 equal 1491.69664357088
variable tmp equal pyy
variable pyy1 equal 1488.21517130894
variable tmp equal pzz
variable pzz1 equal 1488.6028830551
variable tmp equal pxy
variable pxy1 equal 20.351862951701
variable tmp equal pxz
variable pxz1 equal 8.85604808643
variable tmp equal pyz
variable pyz1 equal -46.4168328747031

# Compute elastic constant from pressure tensor

variable C1neg equal 30.3735513080028
variable C2neg equal 42.3891397010038
variable C3neg equal 28.382201354998
variable C4neg equal 3.80443885446056
variable C5neg equal 0.143919748636101
variable C6neg equal 2.45764835594002

# Reset box and simulation parameters

clear
box tilt large
read_restart restart.equil
  restoring atom style atomic from restart
  orthogonal box = (0.153449 0.15485 0.671749) to (56.4805 57.0653 58.8955)
  pair style mlip stores no restart info
  6720 atoms
include potential.mod
#NOTE: This script can be modified for different pair styles
# See in.elastic for more info.

# Choose potential
pair_style  mlip mlip.ini
pair_coeff      * *

# Setup neighbor style
neighbor 1.0 nsq
neigh_modify once no every 1 delay 0 check yes

# Setup minimization style
min_style            cg
min_modify           dmax 0.01 line quadratic

# Setup output
thermo          20
thermo_style custom step temp pe press pxx pyy pzz pxy pxz pyz lx ly lz vol
thermo_modify norm no

# Positive deformation

variable delta equal 1e-06*56.3271008573358
variable deltaxy equal 1e-06*xy
variable deltaxz equal 1e-06*xz
variable deltayz equal 1e-06*yz
change_box all triclinic
  triclinic box = (0.153449 0.15485 0.671749) to (56.4805 57.0653 58.8955) with tilt (0 0 0)
change_box all x delta 0 5.63271008573358e-05 xy delta 0 xz delta 0 remap units box
  triclinic box = (0.153449 0.15485 0.671749) to (56.4806 57.0653 58.8955) with tilt (0 0 0)
  triclinic box = (0.153449 0.15485 0.671749) to (56.4806 57.0653 58.8955) with tilt (0 0 0)
  triclinic box = (0.153449 0.15485 0.671749) to (56.4806 57.0653 58.8955) with tilt (0 0 0)

# Relax atoms positions

minimize 1e-15 1e-10 400000 400000
  update every 1 steps, delay 0 steps, check yes
Step Temp PotEng Press Pxx Pyy Pzz Pxy Pxz Pyz Lx Ly Lz Volume
40669    299.61526   -19636.672    1488.7631    1490.7354    1487.5173    1488.0366    20.321304    8.8542336   -46.406407    56.327157    56.910401    58.223703    186641.97
Loop time of 3.04474 on 72 procs for 103 steps with 6720 atoms

Minimization stats:
  Stopping criterion = energy tolerance
  Energy initial, next-to-last, final =
  Force two-norm initial, final = 0.00347425 9.08813e-06
  Force max component initial, final = 0.000116282 6.60198e-07
  Final line search alpha, max atom move = 1 6.60198e-07
  Iterations, force evaluations = 103 206

# Obtain new stress tensor

variable tmp equal pe
variable e1 equal -19636.6724433445
variable tmp equal press
variable p1 equal 1488.78012741621
variable tmp equal pxx
variable pxx1 equal 1490.83598157627
variable tmp equal pyy
variable pyy1 equal 1487.5072465644
variable tmp equal pzz
variable pzz1 equal 1487.99715410795
variable tmp equal pxy
variable pxy1 equal 20.3541196633917
variable tmp equal pxz
variable pxz1 equal 8.8543447364446
variable tmp equal pyz
variable pyz1 equal -46.4573535974125

# Compute elastic constant from pressure tensor

variable C1pos equal 55.6926481530127
variable C2pos equal 28.4033347529885
variable C3pos equal 32.1906933599848
variable C4pos equal 0.247633416479687
variable C5pos equal 0.0264152499038772
variable C6pos equal -2.68331952500986

# Combine positive and negative

variable C11 equal 0.5*(30.3735513080028+55.6926481530127)
variable C21 equal 0.5*(42.3891397010038+28.4033347529885)
variable C31 equal 0.5*(28.382201354998+32.1906933599848)
variable C41 equal 0.5*(3.80443885446056+0.247633416479687)
variable C51 equal 0.5*(0.143919748636101+0.0264152499038772)
variable C61 equal 0.5*(2.45764835594002+-2.68331952500986)

# Delete dir to make sure it is not reused

variable dir delete

# uyy Perturbation

variable dir equal 2
include displace.mod
# NOTE: This script should not need to be
# modified. See in.elastic for more info.
#
# Find which reference length to use

variable len0 equal 56.9104007004759

# Reset box and simulation parameters

clear
box tilt large
read_restart restart.equil
  restoring atom style atomic from restart
  orthogonal box = (0.153449 0.15485 0.671749) to (56.4805 57.0653 58.8955)
  pair style mlip stores no restart info
  6720 atoms
include potential.mod
#NOTE: This script can be modified for different pair styles
# See in.elastic for more info.

# Choose potential
pair_style  mlip mlip.ini
pair_coeff      * *

# Setup neighbor style
neighbor 1.0 nsq
neigh_modify once no every 1 delay 0 check yes

# Setup minimization style
min_style            cg
min_modify           dmax 0.01 line quadratic

# Setup output
thermo          20
thermo_style custom step temp pe press pxx pyy pzz pxy pxz pyz lx ly lz vol
thermo_modify norm no

# Negative deformation

variable delta equal -1e-06*56.9104007004759
variable deltaxy equal -1e-06*xy
variable deltaxz equal -1e-06*xz
variable deltayz equal -1e-06*yz
change_box all triclinic
  triclinic box = (0.153449 0.15485 0.671749) to (56.4805 57.0653 58.8955) with tilt (0 0 0)
change_box all y delta 0 -5.69104007004759e-05 yz delta -0 remap units box
  triclinic box = (0.153449 0.15485 0.671749) to (56.4805 57.0652 58.8955) with tilt (0 0 0)
  triclinic box = (0.153449 0.15485 0.671749) to (56.4805 57.0652 58.8955) with tilt (0 0 0)

# Relax atoms positions

minimize 1e-15 1e-10 400000 400000
  update every 1 steps, delay 0 steps, check yes
Step Temp PotEng Press Pxx Pyy Pzz Pxy Pxz Pyz Lx Ly Lz Volume
40669    299.61526   -19636.672     1489.571    1491.6616    1488.4451    1488.6062    20.320599    8.8543649   -46.406795    56.327101    56.910344    58.223703    186641.59
Loop time of 3.0186 on 72 procs for 103 steps with 6720 atoms

Minimization stats:
  Stopping criterion = energy tolerance
  Energy initial, next-to-last, final =
  Force two-norm initial, final = 0.00347308 8.9014e-06
  Force max component initial, final = 0.000114793 7.85578e-07
  Final line search alpha, max atom move = 1 7.85578e-07
  Iterations, force evaluations = 103 206

# Obtain new stress tensor

variable tmp equal pxx
variable pxx1 equal 1491.62057220377
variable tmp equal pyy
variable pyy1 equal 1488.30073306871
variable tmp equal pzz
variable pzz1 equal 1488.60198762495
variable tmp equal pxy
variable pxy1 equal 20.3511776895965
variable tmp equal pxz
variable pxz1 equal 8.85482900961214
variable tmp equal pyz
variable pyz1 equal -46.4587850918192

# Compute elastic constant from pressure tensor

variable C1neg equal 22.7664145970039
variable C2neg equal 50.9453156780182
variable C3neg equal 28.2926583400012
variable C4neg equal -0.390782857149929
variable C5neg equal 0.0220120668499746
variable C6neg equal 2.38912214548996

# Reset box and simulation parameters

clear
box tilt large
read_restart restart.equil
  restoring atom style atomic from restart
  orthogonal box = (0.153449 0.15485 0.671749) to (56.4805 57.0653 58.8955)
  pair style mlip stores no restart info
  6720 atoms
include potential.mod
#NOTE: This script can be modified for different pair styles
# See in.elastic for more info.

# Choose potential
pair_style  mlip mlip.ini
pair_coeff      * *

# Setup neighbor style
neighbor 1.0 nsq
neigh_modify once no every 1 delay 0 check yes

# Setup minimization style
min_style            cg
min_modify           dmax 0.01 line quadratic

# Setup output
thermo          20
thermo_style custom step temp pe press pxx pyy pzz pxy pxz pyz lx ly lz vol
thermo_modify norm no

# Positive deformation

variable delta equal 1e-06*56.9104007004759
variable deltaxy equal 1e-06*xy
variable deltaxz equal 1e-06*xz
variable deltayz equal 1e-06*yz
change_box all triclinic
  triclinic box = (0.153449 0.15485 0.671749) to (56.4805 57.0653 58.8955) with tilt (0 0 0)
change_box all y delta 0 5.69104007004759e-05 yz delta 0 remap units box
  triclinic box = (0.153449 0.15485 0.671749) to (56.4805 57.0653 58.8955) with tilt (0 0 0)
  triclinic box = (0.153449 0.15485 0.671749) to (56.4805 57.0653 58.8955) with tilt (0 0 0)

# Relax atoms positions

minimize 1e-15 1e-10 400000 400000
  update every 1 steps, delay 0 steps, check yes
Step Temp PotEng Press Pxx Pyy Pzz Pxy Pxz Pyz Lx Ly Lz Volume
40669    299.61526   -19636.672    1488.7625    1491.0875    1487.1634    1488.0366     20.32171    8.8544564   -46.487715    56.327101    56.910458    58.223703    186641.97
Loop time of 3.02357 on 72 procs for 103 steps with 6720 atoms

Minimization stats:
  Stopping criterion = energy tolerance
  Energy initial, next-to-last, final =
  Force two-norm initial, final = 0.00346935 8.86781e-06
  Force max component initial, final = 0.000117458 6.17342e-07
  Final line search alpha, max atom move = 1 6.17342e-07
  Iterations, force evaluations = 103 206

# Obtain new stress tensor

variable tmp equal pe
variable e1 equal -19636.6724433666
variable tmp equal press
variable p1 equal 1488.77737279166
variable tmp equal pxx
variable pxx1 equal 1490.91207464385
variable tmp equal pyy
variable pyy1 equal 1487.42209291466
variable tmp equal pzz
variable pzz1 equal 1487.99795081647
variable tmp equal pxy
variable pxy1 equal 20.3548372396973
variable tmp equal pxz
variable pxz1 equal 8.85556885349142
variable tmp equal pyz
variable pyz1 equal -46.4153770986715

# Compute elastic constant from pressure tensor

variable C1pos equal 48.0833413949995
variable C2pos equal 36.9186997269935
variable C3pos equal 32.1110225080019
variable C4pos equal -3.95001645762036
variable C5pos equal -0.0959964547780245
variable C6pos equal -2.75507715556991

# Combine positive and negative

variable C12 equal 0.5*(22.7664145970039+48.0833413949995)
variable C22 equal 0.5*(50.9453156780182+36.9186997269935)
variable C32 equal 0.5*(28.2926583400012+32.1110225080019)
variable C42 equal 0.5*(-0.390782857149929+-3.95001645762036)
variable C52 equal 0.5*(0.0220120668499746+-0.0959964547780245)
variable C62 equal 0.5*(2.38912214548996+-2.75507715556991)

# Delete dir to make sure it is not reused

variable dir delete

# uzz Perturbation

variable dir equal 3
include displace.mod
# NOTE: This script should not need to be
# modified. See in.elastic for more info.
#
# Find which reference length to use

variable len0 equal 58.2237029347861

# Reset box and simulation parameters

clear
box tilt large
read_restart restart.equil
  restoring atom style atomic from restart
  orthogonal box = (0.153449 0.15485 0.671749) to (56.4805 57.0653 58.8955)
  pair style mlip stores no restart info
  6720 atoms
include potential.mod
#NOTE: This script can be modified for different pair styles
# See in.elastic for more info.

# Choose potential
pair_style  mlip mlip.ini
pair_coeff      * *

# Setup neighbor style
neighbor 1.0 nsq
neigh_modify once no every 1 delay 0 check yes

# Setup minimization style
min_style            cg
min_modify           dmax 0.01 line quadratic

# Setup output
thermo          20
thermo_style custom step temp pe press pxx pyy pzz pxy pxz pyz lx ly lz vol
thermo_modify norm no

# Negative deformation

variable delta equal -1e-06*58.2237029347861
variable deltaxy equal -1e-06*xy
variable deltaxz equal -1e-06*xz
variable deltayz equal -1e-06*yz
change_box all triclinic
  triclinic box = (0.153449 0.15485 0.671749) to (56.4805 57.0653 58.8955) with tilt (0 0 0)
change_box all z delta 0 -5.82237029347861e-05 remap units box
  triclinic box = (0.153449 0.15485 0.671749) to (56.4805 57.0653 58.8954) with tilt (0 0 0)

# Relax atoms positions

minimize 1e-15 1e-10 400000 400000
  update every 1 steps, delay 0 steps, check yes
Step Temp PotEng Press Pxx Pyy Pzz Pxy Pxz Pyz Lx Ly Lz Volume
40669    299.61526   -19636.672    1489.6135    1491.6593    1488.0891    1489.0922    20.321305    8.8542539   -46.447558    56.327101    56.910401    58.223645    186641.59
Loop time of 3.0601 on 72 procs for 104 steps with 6720 atoms

Minimization stats:
  Stopping criterion = energy tolerance
  Energy initial, next-to-last, final =
  Force two-norm initial, final = 0.00346858 8.34694e-06
  Force max component initial, final = 0.000115579 7.10365e-07
  Final line search alpha, max atom move = 1 7.10365e-07
  Iterations, force evaluations = 104 208

# Obtain new stress tensor

variable tmp equal pxx
variable pxx1 equal 1491.56910544901
variable tmp equal pyy
variable pyy1 equal 1488.1633357927
variable tmp equal pzz
variable pzz1 equal 1488.93715861
variable tmp equal pxy
variable pxy1 equal 20.3532423225004
variable tmp equal pxz
variable pxz1 equal 8.85520802919555
variable tmp equal pyz
variable pyz1 equal -46.4370970651525

# Compute elastic constant from pressure tensor

variable C1neg equal 17.6197391210053
variable C2neg equal 37.2055880770176
variable C3neg equal 61.8097568450139
variable C4neg equal 1.77801980952026
variable C5neg equal 0.0599140251910768
variable C6neg equal 2.59558543587985

# Reset box and simulation parameters

clear
box tilt large
read_restart restart.equil
  restoring atom style atomic from restart
  orthogonal box = (0.153449 0.15485 0.671749) to (56.4805 57.0653 58.8955)
  pair style mlip stores no restart info
  6720 atoms
include potential.mod
#NOTE: This script can be modified for different pair styles
# See in.elastic for more info.

# Choose potential
pair_style  mlip mlip.ini
pair_coeff      * *

# Setup neighbor style
neighbor 1.0 nsq
neigh_modify once no every 1 delay 0 check yes

# Setup minimization style
min_style            cg
min_modify           dmax 0.01 line quadratic

# Setup output
thermo          20
thermo_style custom step temp pe press pxx pyy pzz pxy pxz pyz lx ly lz vol
thermo_modify norm no

# Positive deformation

variable delta equal 1e-06*58.2237029347861
variable deltaxy equal 1e-06*xy
variable deltaxz equal 1e-06*xz
variable deltayz equal 1e-06*yz
change_box all triclinic
  triclinic box = (0.153449 0.15485 0.671749) to (56.4805 57.0653 58.8955) with tilt (0 0 0)
change_box all z delta 0 5.82237029347861e-05 remap units box
  triclinic box = (0.153449 0.15485 0.671749) to (56.4805 57.0653 58.8955) with tilt (0 0 0)

# Relax atoms positions

minimize 1e-15 1e-10 400000 400000
  update every 1 steps, delay 0 steps, check yes
Step Temp PotEng Press Pxx Pyy Pzz Pxy Pxz Pyz Lx Ly Lz Volume
40669    299.61526   -19636.672    1488.7199    1491.0898    1487.5195    1487.5506    20.321003    8.8545673   -46.446953    56.327101    56.910401    58.223761    186641.97
Loop time of 3.05539 on 72 procs for 104 steps with 6720 atoms

Minimization stats:
  Stopping criterion = energy tolerance
  Energy initial, next-to-last, final =
  Force two-norm initial, final = 0.00346908 8.41785e-06
  Force max component initial, final = 0.000116672 7.65e-07
  Final line search alpha, max atom move = 1 7.65e-07
  Iterations, force evaluations = 104 208

# Obtain new stress tensor

variable tmp equal pe
variable e1 equal -19636.672443344
variable tmp equal press
variable p1 equal 1488.7284568853
variable tmp equal pxx
variable pxx1 equal 1490.96341268913
variable tmp equal pyy
variable pyy1 equal 1487.55922749242
variable tmp equal pzz
variable pzz1 equal 1487.66273047434
variable tmp equal pxy
variable pxy1 equal 20.3527064763203
variable tmp equal pxz
variable pxz1 equal 8.85518168427345
variable tmp equal pyz
variable pyz1 equal -46.4371325853419

# Compute elastic constant from pressure tensor

variable C1pos equal 42.9495368669905
variable C2pos equal 23.2052419509955
variable C3pos equal 65.6330567210034
variable C4pos equal -1.7744677905803
variable C5pos equal -0.0572795329810916
variable C6pos equal -2.54200081786991

# Combine positive and negative

variable C13 equal 0.5*(17.6197391210053+42.9495368669905)
variable C23 equal 0.5*(37.2055880770176+23.2052419509955)
variable C33 equal 0.5*(61.8097568450139+65.6330567210034)
variable C43 equal 0.5*(1.77801980952026+-1.7744677905803)
variable C53 equal 0.5*(0.0599140251910768+-0.0572795329810916)
variable C63 equal 0.5*(2.59558543587985+-2.54200081786991)

# Delete dir to make sure it is not reused

variable dir delete

# uyz Perturbation

variable dir equal 4
include displace.mod
# NOTE: This script should not need to be
# modified. See in.elastic for more info.
#
# Find which reference length to use

variable len0 equal 58.2237029347861

# Reset box and simulation parameters

clear
box tilt large
read_restart restart.equil
  restoring atom style atomic from restart
  orthogonal box = (0.153449 0.15485 0.671749) to (56.4805 57.0653 58.8955)
  pair style mlip stores no restart info
  6720 atoms
include potential.mod
#NOTE: This script can be modified for different pair styles
# See in.elastic for more info.

# Choose potential
pair_style  mlip mlip.ini
pair_coeff      * *

# Setup neighbor style
neighbor 1.0 nsq
neigh_modify once no every 1 delay 0 check yes

# Setup minimization style
min_style            cg
min_modify           dmax 0.01 line quadratic

# Setup output
thermo          20
thermo_style custom step temp pe press pxx pyy pzz pxy pxz pyz lx ly lz vol
thermo_modify norm no

# Negative deformation

variable delta equal -1e-06*58.2237029347861
variable deltaxy equal -1e-06*xy
variable deltaxz equal -1e-06*xz
variable deltayz equal -1e-06*yz
change_box all triclinic
  triclinic box = (0.153449 0.15485 0.671749) to (56.4805 57.0653 58.8955) with tilt (0 0 0)
change_box all yz delta -5.82237029347861e-05 remap units box
  triclinic box = (0.153449 0.15485 0.671749) to (56.4805 57.0653 58.8955) with tilt (0 0 -5.82237e-05)

# Relax atoms positions

minimize 1e-15 1e-10 400000 400000
  update every 1 steps, delay 0 steps, check yes
Step Temp PotEng Press Pxx Pyy Pzz Pxy Pxz Pyz Lx Ly Lz Volume
40669    299.61526   -19636.672    1489.1665    1491.3338    1487.8448    1488.3211    20.321235    8.8544415   -46.275413    56.327101    56.910401    58.223703    186641.78
Loop time of 3.01909 on 72 procs for 103 steps with 6720 atoms

Minimization stats:
  Stopping criterion = energy tolerance
  Energy initial, next-to-last, final =
  Force two-norm initial, final = 0.00346301 8.84861e-06
  Force max component initial, final = 0.000116708 6.06348e-07
  Final line search alpha, max atom move = 1 6.06348e-07
  Iterations, force evaluations = 103 206

# Obtain new stress tensor

variable tmp equal pxx
variable pxx1 equal 1491.28655952162
variable tmp equal pyy
variable pyy1 equal 1487.83967690321
variable tmp equal pzz
variable pzz1 equal 1488.30005787625
variable tmp equal pxy
variable pxy1 equal 20.3525394879821
variable tmp equal pxz
variable pxz1 equal 8.85461602455201
variable tmp equal pyz
variable pyz1 equal -46.3266642606559

# Compute elastic constant from pressure tensor

variable C1neg equal -10.6348536180121
variable C2neg equal 4.83969912800148
variable C3neg equal -1.90031652998641
variable C4neg equal 12.8213002591799
variable C5neg equal 0.000713560837084515
variable C6neg equal 2.52530198404983

# Reset box and simulation parameters

clear
box tilt large
read_restart restart.equil
  restoring atom style atomic from restart
  orthogonal box = (0.153449 0.15485 0.671749) to (56.4805 57.0653 58.8955)
  pair style mlip stores no restart info
  6720 atoms
include potential.mod
#NOTE: This script can be modified for different pair styles
# See in.elastic for more info.

# Choose potential
pair_style  mlip mlip.ini
pair_coeff      * *

# Setup neighbor style
neighbor 1.0 nsq
neigh_modify once no every 1 delay 0 check yes

# Setup minimization style
min_style            cg
min_modify           dmax 0.01 line quadratic

# Setup output
thermo          20
thermo_style custom step temp pe press pxx pyy pzz pxy pxz pyz lx ly lz vol
thermo_modify norm no

# Positive deformation

variable delta equal 1e-06*58.2237029347861
variable deltaxy equal 1e-06*xy
variable deltaxz equal 1e-06*xz
variable deltayz equal 1e-06*yz
change_box all triclinic
  triclinic box = (0.153449 0.15485 0.671749) to (56.4805 57.0653 58.8955) with tilt (0 0 0)
change_box all yz delta 5.82237029347861e-05 remap units box
  triclinic box = (0.153449 0.15485 0.671749) to (56.4805 57.0653 58.8955) with tilt (0 0 5.82237e-05)

# Relax atoms positions

minimize 1e-15 1e-10 400000 400000
  update every 1 steps, delay 0 steps, check yes
Step Temp PotEng Press Pxx Pyy Pzz Pxy Pxz Pyz Lx Ly Lz Volume
40669    299.61526   -19636.672    1489.1669    1491.4154    1487.7637    1488.3217    20.321073    8.8543798   -46.619097    56.327101    56.910401    58.223703    186641.78
Loop time of 3.08796 on 72 procs for 105 steps with 6720 atoms

Minimization stats:
  Stopping criterion = energy tolerance
  Energy initial, next-to-last, final =
  Force two-norm initial, final = 0.0034603 8.03961e-06
  Force max component initial, final = 0.000115543 6.1291e-07
  Final line search alpha, max atom move = 1 6.1291e-07
  Iterations, force evaluations = 105 210

# Obtain new stress tensor

variable tmp equal pe
variable e1 equal -19636.6724397565
variable tmp equal press
variable p1 equal 1489.14288424422
variable tmp equal pxx
variable pxx1 equal 1491.24587737956
variable tmp equal pyy
variable pyy1 equal 1487.88284486809
variable tmp equal pzz
variable pzz1 equal 1488.29993048502
variable tmp equal pxy
variable pxy1 equal 20.3534245134633
variable tmp equal pxz
variable pxz1 equal 8.85577886054635
variable tmp equal pyz
variable pyz1 equal -46.547558637456

# Compute elastic constant from pressure tensor

variable C1pos equal 14.7030678240071
variable C2pos equal -9.15649561600276
variable C3pos equal 1.91305565299444
variable C4pos equal 9.2681374208297
variable C5pos equal -0.116997160271026
variable C6pos equal -2.61380453216979

# Combine positive and negative

variable C14 equal 0.5*(-10.6348536180121+14.7030678240071)
variable C24 equal 0.5*(4.83969912800148+-9.15649561600276)
variable C34 equal 0.5*(-1.90031652998641+1.91305565299444)
variable C44 equal 0.5*(12.8213002591799+9.2681374208297)
variable C54 equal 0.5*(0.000713560837084515+-0.116997160271026)
variable C64 equal 0.5*(2.52530198404983+-2.61380453216979)

# Delete dir to make sure it is not reused

variable dir delete

# uxz Perturbation

variable dir equal 5
include displace.mod
# NOTE: This script should not need to be
# modified. See in.elastic for more info.
#
# Find which reference length to use

variable len0 equal 58.2237029347861

# Reset box and simulation parameters

clear
box tilt large
read_restart restart.equil
  restoring atom style atomic from restart
  orthogonal box = (0.153449 0.15485 0.671749) to (56.4805 57.0653 58.8955)
  pair style mlip stores no restart info
  6720 atoms
include potential.mod
#NOTE: This script can be modified for different pair styles
# See in.elastic for more info.

# Choose potential
pair_style  mlip mlip.ini
pair_coeff      * *

# Setup neighbor style
neighbor 1.0 nsq
neigh_modify once no every 1 delay 0 check yes

# Setup minimization style
min_style            cg
min_modify           dmax 0.01 line quadratic

# Setup output
thermo          20
thermo_style custom step temp pe press pxx pyy pzz pxy pxz pyz lx ly lz vol
thermo_modify norm no

# Negative deformation

variable delta equal -1e-06*58.2237029347861
variable deltaxy equal -1e-06*xy
variable deltaxz equal -1e-06*xz
variable deltayz equal -1e-06*yz
change_box all triclinic
  triclinic box = (0.153449 0.15485 0.671749) to (56.4805 57.0653 58.8955) with tilt (0 0 0)
change_box all xz delta -5.82237029347861e-05 remap units box
  triclinic box = (0.153449 0.15485 0.671749) to (56.4805 57.0653 58.8955) with tilt (0 -5.82237e-05 0)

# Relax atoms positions

minimize 1e-15 1e-10 400000 400000
  update every 1 steps, delay 0 steps, check yes
Step Temp PotEng Press Pxx Pyy Pzz Pxy Pxz Pyz Lx Ly Lz Volume
40669    299.61526   -19636.672    1489.1667    1491.3747    1487.8042    1488.3212    20.280101    9.0265599   -46.447225    56.327101    56.910401    58.223703    186641.78
Loop time of 3.03125 on 72 procs for 103 steps with 6720 atoms

Minimization stats:
  Stopping criterion = energy tolerance
  Energy initial, next-to-last, final =
  Force two-norm initial, final = 0.00346203 8.85545e-06
  Force max component initial, final = 0.000119038 5.58611e-07
  Final line search alpha, max atom move = 1 5.58611e-07
  Iterations, force evaluations = 103 206

# Obtain new stress tensor

variable tmp equal pxx
variable pxx1 equal 1491.2670582753
variable tmp equal pyy
variable pyy1 equal 1487.86095137055
variable tmp equal pzz
variable pzz1 equal 1488.30003877743
variable tmp equal pxy
variable pxy1 equal 20.3756924794862
variable tmp equal pxz
variable pxz1 equal 8.96808415365508
variable tmp equal pyz
variable pyz1 equal -46.4376589047459

# Compute elastic constant from pressure tensor

variable C1neg equal -12.5849782499927
variable C2neg equal 6.96714586201779
variable C3neg equal -1.90222641199398
variable C4neg equal 1.72183585018004
variable C5neg equal 11.3475264711441
variable C6neg equal 4.84060113445999

# Reset box and simulation parameters

clear
box tilt large
read_restart restart.equil
  restoring atom style atomic from restart
  orthogonal box = (0.153449 0.15485 0.671749) to (56.4805 57.0653 58.8955)
  pair style mlip stores no restart info
  6720 atoms
include potential.mod
#NOTE: This script can be modified for different pair styles
# See in.elastic for more info.

# Choose potential
pair_style  mlip mlip.ini
pair_coeff      * *

# Setup neighbor style
neighbor 1.0 nsq
neigh_modify once no every 1 delay 0 check yes

# Setup minimization style
min_style            cg
min_modify           dmax 0.01 line quadratic

# Setup output
thermo          20
thermo_style custom step temp pe press pxx pyy pzz pxy pxz pyz lx ly lz vol
thermo_modify norm no

# Positive deformation

variable delta equal 1e-06*58.2237029347861
variable deltaxy equal 1e-06*xy
variable deltaxz equal 1e-06*xz
variable deltayz equal 1e-06*yz
change_box all triclinic
  triclinic box = (0.153449 0.15485 0.671749) to (56.4805 57.0653 58.8955) with tilt (0 0 0)
change_box all xz delta 5.82237029347861e-05 remap units box
  triclinic box = (0.153449 0.15485 0.671749) to (56.4805 57.0653 58.8955) with tilt (0 5.82237e-05 0)

# Relax atoms positions

minimize 1e-15 1e-10 400000 400000
  update every 1 steps, delay 0 steps, check yes
Step Temp PotEng Press Pxx Pyy Pzz Pxy Pxz Pyz Lx Ly Lz Volume
40669    299.61526   -19636.672    1489.1668    1491.3744    1487.8043    1488.3215    20.362208    8.6822614   -46.447286    56.327101    56.910401    58.223703    186641.78
Loop time of 3.05984 on 72 procs for 104 steps with 6720 atoms

Minimization stats:
  Stopping criterion = energy tolerance
  Energy initial, next-to-last, final =
  Force two-norm initial, final = 0.00346129 8.39202e-06
  Force max component initial, final = 0.000113212 6.7506e-07
  Final line search alpha, max atom move = 1 6.7506e-07
  Iterations, force evaluations = 104 208

# Obtain new stress tensor

variable tmp equal pe
variable e1 equal -19636.6724439429
variable tmp equal press
variable p1 equal 1489.142316985
variable tmp equal pxx
variable pxx1 equal 1491.26535508503
variable tmp equal pyy
variable pyy1 equal 1487.86158874077
variable tmp equal pzz
variable pzz1 equal 1488.30000712919
variable tmp equal pxy
variable pxy1 equal 20.3302957479196
variable tmp equal pxz
variable pxz1 equal 8.74230728840143
variable tmp equal pyz
variable pyz1 equal -46.4365361292618

# Compute elastic constant from pressure tensor

variable C1pos equal 12.755297276999
variable C2pos equal -7.03088288400977
variable C3pos equal 1.90539123600502
variable C4pos equal -1.83411339858992
variable C5pos equal 11.230160054221
variable C6pos equal -0.300927977799859

# Combine positive and negative

variable C15 equal 0.5*(-12.5849782499927+12.755297276999)
variable C25 equal 0.5*(6.96714586201779+-7.03088288400977)
variable C35 equal 0.5*(-1.90222641199398+1.90539123600502)
variable C45 equal 0.5*(1.72183585018004+-1.83411339858992)
variable C55 equal 0.5*(11.3475264711441+11.230160054221)
variable C65 equal 0.5*(4.84060113445999+-0.300927977799859)

# Delete dir to make sure it is not reused

variable dir delete

# uxy Perturbation

variable dir equal 6
include displace.mod
# NOTE: This script should not need to be
# modified. See in.elastic for more info.
#
# Find which reference length to use

variable len0 equal 56.9104007004759

# Reset box and simulation parameters

clear
box tilt large
read_restart restart.equil
  restoring atom style atomic from restart
  orthogonal box = (0.153449 0.15485 0.671749) to (56.4805 57.0653 58.8955)
  pair style mlip stores no restart info
  6720 atoms
include potential.mod
#NOTE: This script can be modified for different pair styles
# See in.elastic for more info.

# Choose potential
pair_style  mlip mlip.ini
pair_coeff      * *

# Setup neighbor style
neighbor 1.0 nsq
neigh_modify once no every 1 delay 0 check yes

# Setup minimization style
min_style            cg
min_modify           dmax 0.01 line quadratic

# Setup output
thermo          20
thermo_style custom step temp pe press pxx pyy pzz pxy pxz pyz lx ly lz vol
thermo_modify norm no

# Negative deformation

variable delta equal -1e-06*56.9104007004759
variable deltaxy equal -1e-06*xy
variable deltaxz equal -1e-06*xz
variable deltayz equal -1e-06*yz
change_box all triclinic
  triclinic box = (0.153449 0.15485 0.671749) to (56.4805 57.0653 58.8955) with tilt (0 0 0)
change_box all xy delta -5.69104007004759e-05 remap units box
  triclinic box = (0.153449 0.15485 0.671749) to (56.4805 57.0653 58.8955) with tilt (-5.69104e-05 0 0)

# Relax atoms positions

minimize 1e-15 1e-10 400000 400000
  update every 1 steps, delay 0 steps, check yes
Step Temp PotEng Press Pxx Pyy Pzz Pxy Pxz Pyz Lx Ly Lz Volume
40669    299.61526   -19636.672    1489.1665    1491.3744    1487.8037    1488.3215    20.498128    8.8133572    -46.44717    56.327101    56.910401    58.223703    186641.78
Loop time of 2.99656 on 72 procs for 102 steps with 6720 atoms

Minimization stats:
  Stopping criterion = energy tolerance
  Energy initial, next-to-last, final =
  Force two-norm initial, final = 0.00346794 9.56671e-06
  Force max component initial, final = 0.000114181 6.26376e-07
  Final line search alpha, max atom move = 1 6.26376e-07
  Iterations, force evaluations = 102 204

# Obtain new stress tensor

variable tmp equal pxx
variable pxx1 equal 1491.26534978784
variable tmp equal pyy
variable pyy1 equal 1487.85961146228
variable tmp equal pzz
variable pzz1 equal 1488.30016660313
variable tmp equal pxy
variable pxy1 equal 20.3973085552391
variable tmp equal pxz
variable pxz1 equal 8.87782791821949
variable tmp equal pyz
variable pyz1 equal -46.437547950103

# Compute elastic constant from pressure tensor

variable C1neg equal -12.7558269959991
variable C2neg equal 6.83315503501944
variable C3neg equal -1.88944384199203
variable C4neg equal 1.73293131446997
variable C5neg equal 2.32190292758503
variable C6neg equal 7.00220870974988

# Reset box and simulation parameters

clear
box tilt large
read_restart restart.equil
  restoring atom style atomic from restart
  orthogonal box = (0.153449 0.15485 0.671749) to (56.4805 57.0653 58.8955)
  pair style mlip stores no restart info
  6720 atoms
include potential.mod
#NOTE: This script can be modified for different pair styles
# See in.elastic for more info.

# Choose potential
pair_style  mlip mlip.ini
pair_coeff      * *

# Setup neighbor style
neighbor 1.0 nsq
neigh_modify once no every 1 delay 0 check yes

# Setup minimization style
min_style            cg
min_modify           dmax 0.01 line quadratic

# Setup output
thermo          20
thermo_style custom step temp pe press pxx pyy pzz pxy pxz pyz lx ly lz vol
thermo_modify norm no

# Positive deformation

variable delta equal 1e-06*56.9104007004759
variable deltaxy equal 1e-06*xy
variable deltaxz equal 1e-06*xz
variable deltayz equal 1e-06*yz
change_box all triclinic
  triclinic box = (0.153449 0.15485 0.671749) to (56.4805 57.0653 58.8955) with tilt (0 0 0)
change_box all xy delta 5.69104007004759e-05 remap units box
  triclinic box = (0.153449 0.15485 0.671749) to (56.4805 57.0653 58.8955) with tilt (5.69104e-05 0 0)

# Relax atoms positions

minimize 1e-15 1e-10 400000 400000
  update every 1 steps, delay 0 steps, check yes
Step Temp PotEng Press Pxx Pyy Pzz Pxy Pxz Pyz Lx Ly Lz Volume
40669    299.61526   -19636.672    1489.1669    1491.3747    1487.8049    1488.3212    20.144181    8.8954641   -46.447342    56.327101    56.910401    58.223703    186641.78
Loop time of 3.00244 on 72 procs for 102 steps with 6720 atoms

Minimization stats:
  Stopping criterion = energy tolerance
  Energy initial, next-to-last, final =
  Force two-norm initial, final = 0.00347106 9.66041e-06
  Force max component initial, final = 0.000120037 6.41489e-07
  Final line search alpha, max atom move = 1 6.41489e-07
  Iterations, force evaluations = 102 204

# Obtain new stress tensor

variable tmp equal pe
variable e1 equal -19636.6724420543
variable tmp equal press
variable p1 equal 1489.1435354627
variable tmp equal pxx
variable pxx1 equal 1491.26754842702
variable tmp equal pyy
variable pyy1 equal 1487.86337804721
variable tmp equal pzz
variable pzz1 equal 1488.29967991388
variable tmp equal pxy
variable pxy1 equal 20.3089492529408
variable tmp equal pxz
variable pxz1 equal 8.83246900658953
variable tmp equal pyz
variable pyz1 equal -46.4366439028047

# Compute elastic constant from pressure tensor

variable C1pos equal 12.535963077994
variable C2pos equal -7.20981352801573
variable C3pos equal 1.93811276699307
variable C4pos equal -1.82333604430056
variable C5pos equal 2.2139882354109
variable C6pos equal 1.83372152008019

# Combine positive and negative

variable C16 equal 0.5*(-12.7558269959991+12.535963077994)
variable C26 equal 0.5*(6.83315503501944+-7.20981352801573)
variable C36 equal 0.5*(-1.88944384199203+1.93811276699307)
variable C46 equal 0.5*(1.73293131446997+-1.82333604430056)
variable C56 equal 0.5*(2.32190292758503+2.2139882354109)
variable C66 equal 0.5*(7.00220870974988+1.83372152008019)

# Delete dir to make sure it is not reused

variable dir delete

# Output final values
variable C11all equal 43.0330997305078
variable C22all equal 43.9320077025058
variable C33all equal 63.7214067830086

variable C12all equal 0.5*(35.4248779960017+35.3962372269961)
variable C13all equal 0.5*(30.2846379939979+30.2864473574914)
variable C23all equal 0.5*(30.2054150140066+30.2018404240016)

variable C44all equal 11.0447188400048
variable C55all equal 11.2888432626826
variable C66all equal 4.41796511491503

variable C14all equal 0.5*(2.0341071029975+2.02603613547012)
variable C15all equal 0.5*(0.0851595135031502+0.0851674992699891)
variable C16all equal 0.5*(-0.109931959002551+-0.11283558453492)

variable C24all equal 0.5*(-2.15839824400064+-2.17039965738514)
variable C25all equal 0.5*(-0.0318685109959902+-0.0369921939640249)
variable C26all equal 0.5*(-0.188329246498145+-0.182977505039975)

variable C34all equal 0.5*(0.00636956150401502+0.00177600946998002)
variable C35all equal 0.5*(0.00158241200552001+0.0013172461049926)
variable C36all equal 0.5*(0.02433446250052+0.02679230900497)

variable C45all equal 0.5*(-0.0561387742049401+-0.0581417997169707)
variable C46all equal 0.5*(-0.0452023649152949+-0.0442512740599801)
variable C56all equal 0.5*(2.26794558149796+2.26983657833007)

# Average moduli for cubic crystals

variable C11cubic equal (43.0330997305078+43.9320077025058+63.7214067830086)/3.0
variable C12cubic equal (35.4105576114989+30.2855426757447+30.2036277190041)/3.0
variable C44cubic equal (11.0447188400048+11.2888432626826+4.41796511491503)/3.0

variable bulkmodulus equal (50.2288380720074+2*31.9665760020826)/3.0
variable shearmodulus1 equal 8.91717573920081
variable shearmodulus2 equal (50.2288380720074-31.9665760020826)/2.0
variable poissonratio equal 1.0/(1.0+50.2288380720074/31.9665760020826)

print "========================================="
=========================================
print "Components of the Elastic Constant Tensor"
Components of the Elastic Constant Tensor
print "========================================="
=========================================

Elastic Constant C11all = 43.0330997305078 GPa
Elastic Constant C22all = 43.9320077025058 GPa
Elastic Constant C33all = 63.7214067830086 GPa

Elastic Constant C12all = 35.4105576114989 GPa
Elastic Constant C13all = 30.2855426757447 GPa
Elastic Constant C23all = 30.2036277190041 GPa

Elastic Constant C44all = 11.0447188400048 GPa
Elastic Constant C55all = 11.2888432626826 GPa
Elastic Constant C66all = 4.41796511491503 GPa

Elastic Constant C14all = 2.03007161923381 GPa
Elastic Constant C15all = 0.0851635063865696 GPa
Elastic Constant C16all = -0.111383771768735 GPa

Elastic Constant C24all = -2.16439895069289 GPa
Elastic Constant C25all = -0.0344303524800076 GPa
Elastic Constant C26all = -0.18565337576906 GPa

Elastic Constant C34all = 0.00407278548699752 GPa
Elastic Constant C35all = 0.0014498290552563 GPa
Elastic Constant C36all = 0.025563385752745 GPa

Elastic Constant C45all = -0.0571402869609554 GPa
Elastic Constant C46all = -0.0447268194876375 GPa
Elastic Constant C56all = 2.26889107991401 GPa

print """
"""
